 1
 energy=.00000000000000000E+000 free_energy=0.00000000 cutoff=4.00000000 nneightol=1.20000000 pbc="T T T" Lattice="10.00000000       0.00000000       0.00000000       0.00000000      10.00000000       0.00000000       0.00000000       0.00000000      10.00000000" Properties=species:S:1:pos:R:3:forces:R:3:Z:I:1:map_shift:I:3:n_neighb:I:1:force:R:3
 Al              0.00000000      0.00000000      0.00000000      0.00000000      0.00000000      0.00000000      13       0       0       0       0      0.00000000      0.00000000      0.00000000
 1
 energy=.00000000000000000E+000 free_energy=0.00000000 cutoff=4.00000000 nneightol=1.20000000 pbc="T T T" Lattice="10.00000000       0.00000000       0.00000000       0.00000000      10.00000000       0.00000000       0.00000000       0.00000000      10.00000000" Properties=species:S:1:pos:R:3:forces:R:3:Z:I:1:map_shift:I:3:n_neighb:I:1:force:R:3
 F               0.00000000      0.00000000      0.00000000      0.00000000      0.00000000      0.00000000       9       0       0       0       0      0.00000000      0.00000000      0.00000000
 12
 energy=14.541052089989750 cutoff=4.00000000 nneightol=1.20000000 pbc="T T T" Lattice="14.51721714       0.00000000       0.00000000       0.00000000      14.21835286       0.00000000       0.00000000       0.00000000      17.34358877" Properties=species:S:1:pos:R:3:forces:R:3:Z:I:1:map_shift:I:3:n_neighb:I:1:force:R:3
 Al              1.73017468      0.01614232      2.32588507      1.48678000      1.09626400      0.37957700      13       0       0       0       8      0.24845851     -0.04498423      0.10598650
 Al              1.20045700      1.28889600     -0.14286100     -0.02509800      0.13442500     -0.23197600      13       0       0       0      11      0.03367328      0.30956288     -0.18961489
 Al             -0.64524756      0.72530525     -2.16733177     -1.26081200     -1.35199900      0.52718900      13       0       0       0       8     -0.43701909     -0.31748004      0.10507906
 F              -1.83362017     -0.55953545     -1.87868861      0.60026400      0.60552600     -0.15913300       9       0       0       0       5      0.27109921      0.31990443     -0.11153947
 F               2.47853725     -0.08906195      0.58867145      0.00771700     -0.17845900      0.08017200       9       0       0       0       9      0.05573531     -0.12997194     -0.10253036
 F              -0.41001986      1.64211329     -3.76730633      0.17377300      0.51375900     -0.76824700       9       0       0       0       6     -0.01673179      0.02236337     -0.06407419
 F              -0.52796981      1.92562375     -0.70898805      0.06998600      0.16811300      0.10552500       9       0       0       0       9      0.10286256     -0.08442751      0.10622786
 F               2.31379856      2.70554451     -0.46758844      0.14942200      0.14191700     -0.02486500       9       0       0       0       9      0.00217735      0.01291871     -0.01759057
 F               1.10441024      0.06293040     -1.60979625      0.22289400      0.00661900      0.03963500       9       0       0       0       9      0.22008756     -0.21456348     -0.13027736
 F               0.38703612      1.30523443      1.62459404     -0.12985200     -0.00544700      0.08791900       9       0       0       0       9     -0.35304208      0.25665110      0.26923924
 F               2.68359697      0.99930008      3.57628244     -0.48988800     -0.27667500     -0.34391000       9       0       0       0       6      0.01302193      0.05053480      0.00902833
 F               0.69014767     -1.51280835      2.74594407     -0.80518400     -0.85404500      0.30811400       9       0       0       0       5     -0.14032275     -0.18050810      0.02006586
 12
 energy=14.602070307925658 cutoff=4.00000000 nneightol=1.20000000 pbc="T T T" Lattice="14.15370814       0.00000000       0.00000000       0.00000000      13.30761586       0.00000000       0.00000000       0.00000000      17.20172777" Properties=species:S:1:pos:R:3:forces:R:3:Z:I:1:map_shift:I:3:n_neighb:I:1:force:R:3
 Al              1.22330168      0.11814232      2.47519907      0.00000000      0.00000000      0.00000000      13       0       0       0       8     -0.08137004      0.04005432     -0.05669477
 Al              1.27678400      1.18924300     -0.08308300      0.00000000      0.00000000     -0.00000000      13       0       0       0      11      0.16078695      0.15105257     -0.02910300
 Al             -0.25976656      0.76659025     -2.35361177      0.00000000      0.00000000     -0.00000000      13       0       0       0       8      0.04641180     -0.07290136      0.06302753
 F              -1.40134317     -0.68387845     -2.36105261     -0.00000000     -0.00000000      0.00000000       9       0       0       0       6      0.00089221     -0.00670862     -0.00331928
 F               1.79295925     -0.48490195      0.71468345      0.00000000     -0.00000000      0.00000000       9       0       0       0      10      0.23731872     -0.36001602     -0.02692231
 F              -0.15886786      2.06377529     -3.68756033     -0.00000000     -0.00000000      0.00000000       9       0       0       0       6     -0.01440051      0.08742251     -0.11947768
 F              -0.49346381      1.68525175     -0.65389605     -0.00000000      0.00000000     -0.00000000       9       0       0       0      10     -0.33758993      0.26581632      0.04506880
 F               2.58787656      2.42094651     -0.32035544      0.00000000      0.00000000     -0.00000000       9       0       0       0       9     -0.11712873     -0.11003642      0.02119711
 F               1.46807524      0.20574940     -1.77763325     -0.00000000     -0.00000000     -0.00000000       9       0       0       0       9      0.08940112     -0.08127392      0.05466120
 F               0.64067512      1.75485443      1.69196704     -0.00000000     -0.00000000      0.00000000       9       0       0       0       9     -0.08610612      0.08437166     -0.05525759
 F               2.75236497      0.35222308      3.51416744     -0.00000000     -0.00000000      0.00000000       9       0       0       0       6      0.10769681      0.00022756      0.10259113
 F              -0.24865632     -0.88666935      2.95561907     -0.00000000     -0.00000000     -0.00000000       9       0       0       0       6     -0.00591228      0.00199141      0.00422885
 12
 energy=14.332127048892021 cutoff=4.00000000 nneightol=1.20000000 pbc="T T T" Lattice="14.08953414       0.00000000       0.00000000       0.00000000      13.31077396       0.00000000       0.00000000       0.00000000      16.49879077" Properties=species:S:1:pos:R:3:forces:R:3:Z:I:1:map_shift:I:3:n_neighb:I:1:force:R:3
 Al              1.18015068      0.08456432      2.37434207     -0.38826900      0.25166900     -0.28720400      13       0       0       0       8     -0.07764797      0.13070238     -0.30418021
 Al              1.28348100      1.19552900     -0.08429600      0.09164100      0.08609300     -0.01658300      13       0       0       0      11      0.06760424      0.06352572     -0.01226841
 Al             -0.27555356      0.74479925     -2.24208877      0.28399700     -0.34964300      0.30609600      13       0       0       0       8      0.18226863     -0.03241540      0.28525790
 F              -1.18516017     -0.88694645     -2.29360661     -0.41484800     -0.55881400      0.03449400       9       0       0       0       6     -0.06928929     -0.26247112     -0.07557051
 F               2.05557825     -0.41685195      0.71516745      0.24627400     -0.44234500     -0.24579400       9       0       0       0      10      0.27403790     -0.17469941     -0.08216918
 F              -0.12146686      2.28144929     -3.35323133      0.06318000      0.79733700     -0.74719000       9       0       0       0       6     -0.23888818      0.48146211     -0.62383593
 F              -0.41518581      1.93744575     -0.71606905     -0.37659700      0.31991300      0.26937800       9       0       0       0      10     -0.14373087      0.29710216      0.05857825
 F               2.59093956      2.42382751     -0.32090744     -0.01997800     -0.01876800      0.00361600       9       0       0       0       9     -0.12191167     -0.11452990      0.02206184
 F               1.33367124     -0.10416360     -1.56316625      0.28687500     -0.18410500     -0.22509100       9       0       0       0       9      0.11805361     -0.34271438     -0.03763708
 F               0.29017912      1.60922643      1.56524804     -0.12538300      0.33581900      0.19586200       9       0       0       0       9     -0.32387123      0.14936625      0.07489204
 F               2.90437397      0.31249108      3.14555944      0.92614900      0.13210300      0.56812900       9       0       0       0       6      0.57964251     -0.16135400      0.56219041
 F              -0.45105533     -0.67064035      2.88568007     -0.57304200     -0.36925900      0.14428600       9       0       0       0       6     -0.24626769     -0.03397440      0.13268086
 12
 energy=14.451820105847812 cutoff=4.00000000 nneightol=1.20000000 pbc="T T T" Lattice="14.44617414       0.00000000       0.00000000       0.00000000      13.54585086       0.00000000       0.00000000       0.00000000      17.42210677" Properties=species:S:1:pos:R:3:forces:R:3:Z:I:1:map_shift:I:3:n_neighb:I:1:force:R:3
 Al              1.29308668      0.03675232      2.43831007      0.00000000      0.00000000      0.00000000      13       0       0       0       8      0.09112323      0.13262273      0.23809039
 Al              1.45455000      0.98191700     -0.17705200      0.00000000      0.00000000     -0.00000000      13       0       0       0      11     -0.07931522     -0.21313491     -0.00853225
 Al             -0.30864256      0.82359325     -2.32777477      0.00000000      0.00000000     -0.00000000      13       0       0       0       8     -0.05436806      0.20409749     -0.19485039
 F              -1.90969017     -0.09100045     -2.09233361     -0.00000000     -0.00000000      0.00000000       9       0       0       0       6     -0.07453066      0.04021534      0.06477943
 F               2.41292025     -0.34347495      0.86098245      0.00000000     -0.00000000      0.00000000       9       0       0       0       9      0.24948494     -0.10870710     -0.24317614
 F               0.04215214      1.82932729     -3.79382133     -0.00000000     -0.00000000      0.00000000       9       0       0       0       6     -0.02482142     -0.15077801      0.09000612
 F              -0.36313881      1.60882575     -0.59928505     -0.00000000      0.00000000     -0.00000000       9       0       0       0      10     -0.20115366      0.01328283      0.06194392
 F               2.41368856      2.62409951     -0.22827744      0.00000000      0.00000000     -0.00000000       9       0       0       0       9      0.13895148      0.29116318      0.00137119
 F               1.48215724      0.11375541     -1.90857925     -0.00000000     -0.00000000     -0.00000000       9       0       0       0       9      0.33282827     -0.14965059      0.00482312
 F               0.30687512      1.27968343      1.39440104     -0.00000000     -0.00000000      0.00000000       9       0       0       0      10     -0.19652607      0.01101023      0.07571842
 F               2.53648397      0.60400108      3.62828544     -0.00000000     -0.00000000      0.00000000       9       0       0       0       6     -0.08763671     -0.11992130     -0.09690465
 F              -0.21857733     -0.92175135      2.93971607     -0.00000000     -0.00000000     -0.00000000       9       0       0       0       6     -0.09403612      0.04980009      0.00673084
